26
Octane
C   2.142   1.395  -8.932
H   1.604   0.760  -8.260
H   1.745   2.388  -8.880
H   2.043   1.024  -9.930
C   3.631   1.416  -8.537
H   4.169   2.051  -9.210
H   3.731   1.788  -7.539
C   4.203  -0.012  -8.612
H   3.665  -0.647  -7.940
H   4.104  -0.384  -9.610
C   5.691   0.009  -8.218
H   5.793   0.388  -7.201
H   6.240   0.656  -8.903
C   6.263  -1.418  -8.293
H   6.162  -1.797  -9.309
H   5.715  -2.065  -7.608
C   7.750  -1.397  -7.899
H   7.852  -1.018  -6.882
H   8.299  -0.750  -8.583
C   8.321  -2.824  -7.973
H   8.221  -3.203  -8.990
H   7.774  -3.471  -7.288
C   9.809  -2.803  -7.579
H  10.214  -3.813  -7.632
H  10.358  -2.156  -8.264
H   9.911  -2.424  -6.562
